LTspice 26.0.1 for Windows
Circuit: C:\Users\ASXAIVA\OneDrive\Desktop\CLASS D.net
Start Time: Sun Feb  1 16:55:47 2026
solver = Normal
Maximum thread count: 4
tnom = 27
temp = 27
method = trap
Direct Newton iteration succeeded in finding operating point.
Total elapsed time: 9.327 seconds.

Files loaded:
C:\Users\ASXAIVA\OneDrive\Desktop\CLASS D.net
C:\Users\ASXAIVA\AppData\Local\LTspice\lib\cmp\standard.bjt
C:\Users\ASXAIVA\AppData\Local\LTspice\lib\cmp\standard.mos
C:\Users\ASXAIVA\AppData\Local\LTspice\lib\sub\NE555.sub
C:\Users\ASXAIVA\AppData\Local\LTspice\lib\sub\UniversalOpAmp2.lib

